# This file was generated by ISOCIF, version 2.3.11
# Harold T. Stokes and Branton J. Campbell
# Brigham Young University, Provo, Utah, USA
#
# Space Group: 154 P3_221     D3-6
# 
# Lattice parameters: a=2, b=2, c=5, alpha=90, beta=90, gamma=120
# A 3b (x,0,1/6), x=0.2
# B 6c (x,y,z), x=0.1, y=0.2, z=0.3
 
data_isocif-output
_audit_creation_method ISOCIF
 
_cell_length_a    2.00000
_cell_length_b    2.00000
_cell_length_c    5.00000
_cell_angle_alpha 90.00000
_cell_angle_beta  90.00000
_cell_angle_gamma 120.00000
 
_symmetry_space_group_name_H-M "P 32 2 1"
_symmetry_Int_Tables_number 154
 
loop_
_space_group_symop_id
_space_group_symop_operation_xyz
1 x,y,z
2 -y,x-y,z+2/3
3 -x+y,-x,z+1/3
4 x-y,-y,-z+1/3
5 y,x,-z
6 -x,-x+y,-z+2/3
 
loop_
_atom_site_label
_atom_site_type_symbol
_atom_site_symmetry_multiplicity
_atom_site_Wyckoff_label
_atom_site_fract_x
_atom_site_fract_y
_atom_site_fract_z
_atom_site_occupancy
A Fe   3 b 0.20000 0.00000 0.16667 1.00000
B O    6 c 0.10000 0.20000 0.30000 1.00000
 
